Circuit: * C:\Users\ohvic\Documents\ITBA\ASSD_2020_G4\TP1\SPICE FINAL\main.asc

WARNING: Less than two connections to node OSC:NC_01.  This node is used by R:OSC:X2:2.
Early termination of direct N-R iteration.
Direct Newton iteration failed to find .op point.  (Use ".option noopiter" to skip.)
Starting Gmin stepping
Gmin = 10
vernier = 0.5
vernier = 0.25
vernier = 0.125
Gmin = 5.49741
vernier = 0.0625
vernier = 0.03125
vernier = 0.015625
vernier = 0.0078125
Gmin = 5.51716
vernier = 0.00390625
vernier = 0.00195313
vernier = 0.000976563
vernier = 0.000488281
Gmin = 5.50104
Gmin = 0
Gmin stepping failed

Starting source stepping with srcstepmethod=0
Source Step = 3.0303%
Source Step = 9.84848%
Source Step = 17.4242%
Source Step = 25%
Source Step = 32.5758%
Source Step = 40.1515%
vernier = 0.375
Source Step = 50.7576%
Source Step = 62.1212%
Source Step = 73.4848%
Source Step = 84.8485%
Source Step = 96.2121%
vernier = 0.5625
Source stepping succeeded in finding the operating point.

Ignoring empty pin current: Ix(u1:3)
Ignoring empty pin current: Ix(u1:8)
Ignoring empty pin current: Ix(u1:7)
Ignoring empty pin current: Ix(u1:4)
Ignoring empty pin current: Ix(u1:6)
Ignoring empty pin current: Ix(u1:5)
Ignoring empty pin current: Ix(u1:1)
Ignoring empty pin current: Ix(s_h:ctrl)
Ignoring empty pin current: Ix(s_h:in)
Ignoring empty pin current: Ix(s_h:out)
Ignoring empty pin current: Ix(s_h:vcc)
Ignoring empty pin current: Ix(s_h:vee)
Ignoring empty pin current: Ix(a_s:ctrl)
Ignoring empty pin current: Ix(u1:3)
Ignoring empty pin current: Ix(u1:8)
Ignoring empty pin current: Ix(u1:7)
Ignoring empty pin current: Ix(u1:4)
Ignoring empty pin current: Ix(u1:6)
Ignoring empty pin current: Ix(u1:5)
Ignoring empty pin current: Ix(u1:1)
Ignoring empty pin current: Ix(s_h:ctrl)
Ignoring empty pin current: Ix(s_h:in)
Ignoring empty pin current: Ix(s_h:out)
Ignoring empty pin current: Ix(s_h:vcc)
Ignoring empty pin current: Ix(s_h:vee)
Ignoring empty pin current: Ix(a_s:ctrl)
Heightened Def Con from 1.07754e-007 to 1.07754e-007
Heightened Def Con from 1.07754e-007 to 1.07754e-007
Heightened Def Con from 1.07754e-007 to 1.07754e-007
Heightened Def Con from 1.07754e-007 to 1.07754e-007
Heightened Def Con from 1.07754e-007 to 1.07754e-007
Heightened Def Con from 1.07754e-007 to 1.07754e-007
Heightened Def Con from 1.07754e-007 to 1.07754e-007
Heightened Def Con from 1.07754e-007 to 1.07754e-007
Heightened Def Con from 1.07754e-007 to 1.07754e-007
Heightened Def Con from 1.07754e-007 to 1.07754e-007
Heightened Def Con from 1.07754e-007 to 1.07754e-007
Heightened Def Con from 1.07754e-007 to 1.07754e-007
Heightened Def Con from 1.07754e-007 to 1.07754e-007
Heightened Def Con from 1.07754e-007 to 1.07754e-007
Heightened Def Con from 1.07754e-007 to 1.07754e-007
Heightened Def Con from 1.07754e-007 to 1.07754e-007
Heightened Def Con from 1.07754e-007 to 1.07754e-007
Heightened Def Con from 1.07754e-007 to 1.07754e-007
Heightened Def Con from 1.07754e-007 +to 1.07754e-007
Heightened Def Con from 1.07754e-007 +to 1.07754e-007
Heightened Def Con from 1.07754e-007 +to 1.07754e-007
Heightened Def Con from 1.07754e-007 +to 1.07754e-007
Heightened Def Con from 1.07754e-007 +to 1.07754e-007
Heightened Def Con from 1.07754e-007 +to 1.07754e-007
Heightened Def Con from 1.07754e-007 +to 1.07754e-007
Heightened Def Con from 1.07754e-007 +to 1.07754e-007
Heightened Def Con from 1.07754e-007 +to 1.07754e-007
Heightened Def Con from 1.07754e-007 +to 1.07754e-007
Heightened Def Con from 1.07754e-007 +to 1.07754e-007
Heightened Def Con from 1.07754e-007 +to 1.07754e-007
Heightened Def Con from 1.07754e-007 +to 1.07754e-007
Heightened Def Con from 1.07754e-007 +to 1.07754e-007
Heightened Def Con from 1.07754e-007 +to 1.07754e-007
Heightened Def Con from 1.07754e-007 +to 1.07754e-007
Heightened Def Con from 1.07754e-007 +to 1.07754e-007
Heightened Def Con from 1.07754e-007 +to 1.07754e-007
Heightened Def Con from 1.07754e-007 +to 1.07754e-007
Heightened Def Con from 1.07754e-007 +to 1.07754e-007
Heightened Def Con from 1.07754e-007 +to 1.07754e-007
Heightened Def Con from 1.07754e-007 +to 1.07754e-007
Heightened Def Con from 1.07754e-007 +to 1.07754e-007
Heightened Def Con from 1.07754e-007 +to 1.07754e-007
Heightened Def Con from 1.07754e-007 +to 1.07754e-007
Heightened Def Con from 1.07754e-007 +to 1.07754e-007
Heightened Def Con from 1.07754e-007 +to 1.07754e-007
Heightened Def Con from 1.07754e-007 +to 1.07754e-007
Heightened Def Con from 1.07754e-007 +to 1.07754e-007
Heightened Def Con from 1.07754e-007 +to 1.07754e-007
Heightened Def Con from 1.07754e-007 +to 1.07754e-007
Heightened Def Con from 1.07754e-007 +to 1.07754e-007
Heightened Def Con from 1.07754e-007 +to 1.07754e-007
Heightened Def Con from 1.07754e-007 +to 1.07754e-007
Heightened Def Con from 1.07754e-007 +to 1.07754e-007
Heightened Def Con from 1.07754e-007 +to 1.07754e-007
Heightened Def Con from 1.07754e-007 +to 1.07754e-007
Heightened Def Con from 1.07754e-007 +to 1.07754e-007
Heightened Def Con from 1.07754e-007 +to 1.07754e-007
Heightened Def Con from 1.07754e-007 +to 1.07754e-007
Heightened Def Con from 1.07754e-007 +to 1.07754e-007
Heightened Def Con from 1.07754e-007 +to 1.07754e-007
Heightened Def Con from 1.07754e-007 +to 1.07754e-007
Heightened Def Con from 1.07754e-007 +to 1.07754e-007
Heightened Def Con from 1.07754e-007 +to 1.07754e-007
Heightened Def Con from 1.07754e-007 +to 1.07754e-007
Heightened Def Con from 1.07754e-007 +to 1.07754e-007
Heightened Def Con from 1.07754e-007 +to 1.07754e-007
Heightened Def Con from 1.07754e-007 ++to 1.07754e-007
Heightened Def Con from 1.07754e-007 ++to 1.07754e-007
Heightened Def Con from 1.07754e-007 ++to 1.07754e-007
Heightened Def Con from 1.07754e-007 ++to 1.07754e-007
Heightened Def Con from 1.07754e-007 ++to 1.07754e-007
Heightened Def Con from 1.07754e-007 ++to 1.07754e-007
Heightened Def Con from 1.07754e-007 ++to 1.07754e-007
Heightened Def Con from 1.07754e-007 ++to 1.07754e-007
Heightened Def Con from 1.07754e-007 ++to 1.07754e-007
Heightened Def Con from 1.07754e-007 ++to 1.07754e-007
Heightened Def Con from 1.07754e-007 ++to 1.07754e-007
Heightened Def Con from 1.07754e-007 ++to 1.07754e-007
Heightened Def Con from 1.07754e-007 ++to 1.07754e-007
Heightened Def Con from 1.07754e-007 ++to 1.07754e-007
Heightened Def Con from 1.07754e-007 ++to 1.07754e-007
Heightened Def Con from 1.07754e-007 ++to 1.07754e-007
Heightened Def Con from 1.07754e-007 ++to 1.07754e-007
Heightened Def Con from 1.07754e-007 ++to 1.07754e-007
Heightened Def Con from 1.07754e-007 ++to 1.07754e-007
Heightened Def Con from 1.07754e-007 ++to 1.07754e-007
Heightened Def Con from 1.07754e-007 ++to 1.07754e-007
Heightened Def Con from 1.07754e-007 ++to 1.07754e-007
Heightened Def Con from 1.07754e-007 ++to 1.07754e-007
Heightened Def Con from 1.07754e-007 ++to 1.07754e-007
Heightened Def Con from 1.07754e-007 ++to 1.07754e-007
Heightened Def Con from 1.07754e-007 ++to 1.07754e-007
Heightened Def Con from 1.07754e-007 ++to 1.07754e-007
Heightened Def Con from 1.07754e-007 ++to 1.07754e-007
Heightened Def Con from 1.07754e-007 ++to 1.07754e-007
Heightened Def Con from 1.07754e-007 ++to 1.07754e-007
Heightened Def Con from 1.07754e-007 ++to 1.07754e-007
Heightened Def Con from 1.07754e-007 ++to 1.07754e-007
Heightened Def Con from 1.07754e-007 ++to 1.07754e-007
Heightened Def Con from 1.07754e-007 ++to 1.07754e-007
Heightened Def Con from 1.07754e-007 ++to 1.07754e-007
Heightened Def Con from 1.07754e-007 ++to 1.07754e-007
Heightened Def Con from 1.07754e-007 ++to 1.07754e-007
Heightened Def Con from 1.07754e-007 ++to 1.07754e-007
Heightened Def Con from 1.07754e-007 ++to 1.07754e-007
Heightened Def Con from 1.07754e-007 ++to 1.07754e-007
Heightened Def Con from 1.07754e-007 ++to 1.07754e-007
Heightened Def Con from 1.07754e-007 ++to 1.07754e-007
Heightened Def Con from 1.07754e-007 ++to 1.07754e-007
Heightened Def Con from 1.07754e-007 ++to 1.07754e-007
Heightened Def Con from 1.07754e-007 ++to 1.07754e-007
Heightened Def Con from 1.07754e-007 ++to 1.07754e-007
Heightened Def Con from 1.07754e-007 ++to 1.07754e-007
Heightened Def Con from 1.07754e-007 ++to 1.07754e-007
Heightened Def Con from 1.07754e-007 ++to 1.07754e-007
Heightened Def Con from 1.07754e-007 ++to 1.07754e-007
Heightened Def Con from 1.07754e-007 ++to 1.07754e-007
Heightened Def Con from 1.07754e-007 ++to 1.07754e-007
Heightened Def Con from 1.07754e-007 ++to 1.07754e-007
Heightened Def Con from 1.07754e-007 ++to 1.07754e-007
Heightened Def Con from 1.07754e-007 ++to 1.07754e-007
Heightened Def Con from 1.07754e-007 ++to 1.07754e-007
Heightened Def Con from 1.07754e-007 ++to 1.07754e-007
Heightened Def Con from 1.07754e-007 ++to 1.07754e-007
Heightened Def Con from 1.07754e-007 +++to 1.07754e-007
Heightened Def Con from 1.07754e-007 +++to 1.07754e-007
Heightened Def Con from 1.07754e-007 +++to 1.07754e-007
Heightened Def Con from 1.07754e-007 +++to 1.07754e-007
Heightened Def Con from 1.07754e-007 +++to 1.07754e-007
Heightened Def Con from 1.07754e-007 +++to 1.07754e-007
Heightened Def Con from 1.07754e-007 +++to 1.07754e-007
Heightened Def Con from 1.07754e-007 +++to 1.07754e-007
Heightened Def Con from 1.07754e-007 +++to 1.07754e-007
Heightened Def Con from 1.07754e-007 +++to 1.07754e-007
Heightened Def Con from 1.07754e-007 +++to 1.07754e-007
Heightened Def Con from 1.07754e-007 +++to 1.07754e-007
Heightened Def Con from 1.07754e-007 +++to 1.07754e-007
Heightened Def Con from 1.07754e-007 +++to 1.07754e-007
Heightened Def Con from 1.07754e-007 +++to 1.07754e-007
Heightened Def Con from 1.07754e-007 +++to 1.07754e-007
Heightened Def Con from 1.07754e-007 +++to 1.07754e-007
Heightened Def Con from 1.07754e-007 +++to 1.07754e-007
Heightened Def Con from 1.07754e-007 +++to 1.07754e-007
Heightened Def Con from 1.07754e-007 +++to 1.07754e-007
Heightened Def Con from 1.07754e-007 +++to 1.07754e-007
Heightened Def Con from 1.07754e-007 +++to 1.07754e-007
Heightened Def Con from 1.07754e-007 +++to 1.07754e-007
Heightened Def Con from 1.07754e-007 +++to 1.07754e-007
Heightened Def Con from 1.07754e-007 +++to 1.07754e-007
Heightened Def Con from 1.07754e-007 +++to 1.07754e-007
Heightened Def Con from 1.07754e-007 +++to 1.07754e-007
Heightened Def Con from 1.07754e-007 +++to 1.07754e-007
Heightened Def Con from 1.07754e-007 +++to 1.07754e-007
Heightened Def Con from 1.07754e-007 +++to 1.07754e-007
Heightened Def Con from 1.07754e-007 +++to 1.07754e-007
Heightened Def Con from 1.07754e-007 +++to 1.07754e-007
Heightened Def Con from 1.07754e-007 +++to 1.07754e-007
Heightened Def Con from 1.07754e-007 +++to 1.07754e-007
Heightened Def Con from 1.07754e-007 +++to 1.07754e-007
Heightened Def Con from 1.07754e-007 +++to 1.07754e-007
Heightened Def Con from 1.07754e-007 +++to 1.07754e-007
Heightened Def Con from 1.07754e-007 +++to 1.07754e-007
Heightened Def Con from 1.07754e-007 +++to 1.07754e-007
Heightened Def Con from 1.07754e-007 +++to 1.07754e-007
Heightened Def Con from 1.07754e-007 +++to 1.07754e-007
Heightened Def Con from 1.07754e-007 +++to 1.07754e-007
Heightened Def Con from 1.07754e-007 +++to 1.07754e-007
Heightened Def Con from 1.07754e-007 +++to 1.07754e-007
Heightened Def Con from 1.07754e-007 +++to 1.07754e-007
Heightened Def Con from 1.07754e-007 +++to 1.07754e-007
Heightened Def Con from 1.07754e-007 +++to 1.07754e-007
Heightened Def Con from 1.07754e-007 +++to 1.07754e-007
Heightened Def Con from 1.07754e-007 +++to 1.07754e-007
Heightened Def Con from 1.07754e-007 +++to 1.07754e-007
Heightened Def Con from 1.07754e-007 +++to 1.07754e-007
Heightened Def Con from 1.07754e-007 +++to 1.07754e-007
Heightened Def Con from 1.07754e-007 +++to 1.07754e-007
Heightened Def Con from 1.07754e-007 +++to 1.07754e-007
Heightened Def Con from 1.07754e-007 +++to 1.07754e-007
Heightened Def Con from 1.07754e-007 +++to 1.07754e-007
Heightened Def Con from 1.07754e-007 +++to 1.07754e-007
Heightened Def Con from 1.07754e-007 +++to 1.07754e-007
Heightened Def Con from 1.07754e-007 +++to 1.07754e-007
Heightened Def Con from 1.07754e-007 +++to 1.07754e-007
Heightened Def Con from 1.07754e-007 +++to 1.07754e-007
Heightened Def Con from 1.07754e-007 +++to 1.07754e-007
Heightened Def Con from 1.07754e-007 +++to 1.07754e-007
Heightened Def Con from 1.07754e-007 +++to 1.07754e-007
Heightened Def Con from 1.07754e-007 +++to 1.07754e-007
Heightened Def Con from 1.07754e-007 +++to 1.07754e-007
Heightened Def Con from 1.07754e-007 +++to 1.07754e-007
Heightened Def Con from 1.07754e-007 +++to 1.07754e-007
Heightened Def Con from 1.07754e-007 +++to 1.07754e-007
Heightened Def Con from 1.07754e-007 +++to 1.07754e-007
Heightened Def Con from 1.07754e-007 ++++to 1.07754e-007
Heightened Def Con from 1.07754e-007 ++++to 1.07754e-007
Heightened Def Con from 1.07754e-007 ++++to 1.07754e-007
Heightened Def Con from 1.07754e-007 ++++to 1.07754e-007
Heightened Def Con from 1.07754e-007 ++++to 1.07754e-007
Heightened Def Con from 1.07754e-007 ++++to 1.07754e-007
Heightened Def Con from 1.07754e-007 ++++to 1.07754e-007
Heightened Def Con from 1.07754e-007 ++++to 1.07754e-007
Heightened Def Con from 1.07754e-007 ++++to 1.07754e-007
Heightened Def Con from 1.07754e-007 ++++to 1.07754e-007
Heightened Def Con from 1.07754e-007 ++++to 1.07754e-007
Heightened Def Con from 1.07754e-007 ++++to 1.07754e-007
Heightened Def Con from 1.07754e-007 ++++to 1.07754e-007
Heightened Def Con from 1.07754e-007 ++++to 1.07754e-007
Heightened Def Con from 1.07754e-007 ++++to 1.07754e-007
Heightened Def Con from 1.07754e-007 ++++to 1.07754e-007
Heightened Def Con from 1.07754e-007 ++++to 1.07754e-007
Heightened Def Con from 1.07754e-007 ++++to 1.07754e-007
Heightened Def Con from 1.07754e-007 ++++to 1.07754e-007
Heightened Def Con from 1.07754e-007 ++++to 1.07754e-007
Heightened Def Con from 1.07754e-007 ++++to 1.07754e-007
Heightened Def Con from 1.07754e-007 ++++to 1.07754e-007
Heightened Def Con from 1.07754e-007 ++++to 1.07754e-007
Heightened Def Con from 1.07754e-007 ++++to 1.07754e-007
Heightened Def Con from 1.07754e-007 ++++to 1.07754e-007
Heightened Def Con from 1.07754e-007 ++++to 1.07754e-007
Heightened Def Con from 1.07754e-007 ++++to 1.07754e-007
Heightened Def Con from 1.07754e-007 ++++to 1.07754e-007
Heightened Def Con from 1.07754e-007 ++++to 1.07754e-007
Heightened Def Con from 1.07754e-007 ++++to 1.07754e-007
Heightened Def Con from 1.07754e-007 ++++to 1.07754e-007
Heightened Def Con from 1.07754e-007 ++++to 1.07754e-007
Heightened Def Con from 1.07754e-007 ++++to 1.07754e-007
Heightened Def Con from 1.07754e-007 ++++to 1.07754e-007
Heightened Def Con from 1.07754e-007 ++++to 1.07754e-007
Heightened Def Con from 1.07754e-007 ++++to 1.07754e-007
Heightened Def Con from 1.07754e-007 ++++to 1.07754e-007
Heightened Def Con from 1.07754e-007 ++++to 1.07754e-007
Heightened Def Con from 1.07754e-007 ++++to 1.07754e-007
Heightened Def Con from 1.07754e-007 ++++to 1.07754e-007
Heightened Def Con from 1.07754e-007 ++++to 1.07754e-007
Heightened Def Con from 1.07754e-007 ++++to 1.07754e-007
Heightened Def Con from 1.07754e-007 ++++to 1.07754e-007
Heightened Def Con from 1.07754e-007 ++++to 1.07754e-007
Heightened Def Con from 1.07754e-007 ++++to 1.07754e-007
Heightened Def Con from 1.07754e-007 ++++to 1.07754e-007
Heightened Def Con from 1.07754e-007 ++++to 1.07754e-007
Heightened Def Con from 1.07754e-007 ++++to 1.07754e-007
Heightened Def Con from 1.07754e-007 ++++to 1.07754e-007
Heightened Def Con from 1.07754e-007 ++++to 1.07754e-007
Heightened Def Con from 1.07754e-007 ++++to 1.07754e-007
Heightened Def Con from 1.07754e-007 ++++to 1.07754e-007
Heightened Def Con from 1.07754e-007 ++++to 1.07754e-007
Heightened Def Con from 1.07754e-007 ++++to 1.07754e-007
Heightened Def Con from 1.07754e-007 ++++to 1.07754e-007
Heightened Def Con from 1.07754e-007 ++++to 1.07754e-007
Heightened Def Con from 1.07754e-007 ++++to 1.07754e-007
Heightened Def Con from 1.07754e-007 ++++to 1.07754e-007
Heightened Def Con from 1.07754e-007 ++++to 1.07754e-007
Heightened Def Con from 1.07754e-007 ++++to 1.07754e-007
Heightened Def Con from 1.07754e-007 ++++to 1.07754e-007
Heightened Def Con from 1.07754e-007 ++++to 1.07754e-007
Heightened Def Con from 1.07754e-007 ++++to 1.07754e-007
Heightened Def Con from 1.07754e-007 ++++to 1.07754e-007
Heightened Def Con from 1.07754e-007 ++++to 1.07754e-007
Heightened Def Con from 1.07754e-007 ++++to 1.07754e-007
Heightened Def Con from 1.07754e-007 ++++to 1.07754e-007
Heightened Def Con from 1.07754e-007 ++++to 1.07754e-007
Heightened Def Con from 1.07754e-007 ++++to 1.07754e-007
Heightened Def Con from 1.07754e-007 ++++to 1.07754e-007
Heightened Def Con from 1.07754e-007 ++++to 1.07754e-007
Heightened Def Con from 1.07754e-007 ++++to 1.07754e-007
Heightened Def Con from 1.07754e-007 ++++to 1.07754e-007
Heightened Def Con from 1.07754e-007 ++++to 1.07754e-007
Heightened Def Con from 1.07754e-007 ++++to 1.07754e-007
Heightened Def Con from 1.07754e-007 ++++to 1.07754e-007
Heightened Def Con from 1.07754e-007 ++++to 1.07754e-007
Heightened Def Con from 1.07754e-007 ++++to 1.07754e-007
Heightened Def Con from 1.07754e-007 ++++to 1.07754e-007
Heightened Def Con from 1.07754e-007 ++++to 1.07754e-007
Heightened Def Con from 1.07754e-007 ++++to 1.07754e-007
Heightened Def Con from 1.07754e-007 ++++to 1.07754e-007
Heightened Def Con from 1.07754e-007 ++++to 1.07754e-007
Heightened Def Con from 1.07754e-007 ++++to 1.07754e-007
Heightened Def Con from 1.07754e-007 ++++to 1.07754e-007
Heightened Def Con from 1.07754e-007 ++++to 1.07754e-007
Heightened Def Con from 1.07754e-007 ++++to 1.07754e-007
Heightened Def Con from 1.07754e-007 ++++to 1.07754e-007
Heightened Def Con from 1.07754e-007 ++++to 1.07754e-007
Heightened Def Con from 1.07754e-007 ++++to 1.07754e-007
Heightened Def Con from 1.07754e-007 ++++to 1.07754e-007
Heightened Def Con from 1.07754e-007 ++++to 1.07754e-007
Heightened Def Con from 1.07754e-007 ++++to 1.07754e-007
Heightened Def Con from 1.07754e-007 ++++to 1.07754e-007
Heightened Def Con from 1.07754e-007 +++++to 1.07754e-007
Heightened Def Con from 1.07754e-007 +++++to 1.07754e-007
Heightened Def Con from 1.07754e-007 +++++to 1.07754e-007
Heightened Def Con from 1.07754e-007 +++++to 1.07754e-007
Heightened Def Con from 1.07754e-007 +++++to 1.07754e-007
Heightened Def Con from 1.07754e-007 +++++to 1.07754e-007
Heightened Def Con from 1.07754e-007 +++++to 1.07754e-007
Heightened Def Con from 1.07754e-007 +++++to 1.07754e-007
Heightened Def Con from 1.07754e-007 +++++to 1.07754e-007
Heightened Def Con from 1.07754e-007 +++++to 1.07754e-007
Heightened Def Con from 1.07754e-007 +++++to 1.07754e-007
Heightened Def Con from 1.07754e-007 +++++to 1.07754e-007
Heightened Def Con from 1.07754e-007 +++++to 1.07754e-007
Heightened Def Con from 1.07754e-007 +++++to 1.07754e-007
Heightened Def Con from 1.07754e-007 +++++to 1.07754e-007
Heightened Def Con from 1.07754e-007 +++++to 1.07754e-007
Heightened Def Con from 1.07754e-007 +++++to 1.07754e-007
Heightened Def Con from 1.07754e-007 +++++to 1.07754e-007
Heightened Def Con from 1.07754e-007 +++++to 1.07754e-007
Heightened Def Con from 1.07754e-007 +++++to 1.07754e-007
Heightened Def Con from 1.07754e-007 +++++to 1.07754e-007
Heightened Def Con from 1.07754e-007 +++++to 1.07754e-007
Heightened Def Con from 1.07754e-007 +++++to 1.07754e-007
Heightened Def Con from 1.07754e-007 +++++to 1.07754e-007
Heightened Def Con from 1.07754e-007 +++++to 1.07754e-007
Heightened Def Con from 1.07754e-007 +++++to 1.07754e-007
Heightened Def Con from 1.07754e-007 +++++to 1.07754e-007
Heightened Def Con from 1.07754e-007 +++++to 1.07754e-007
Heightened Def Con from 1.07754e-007 +++++to 1.07754e-007
Heightened Def Con from 1.07754e-007 +++++to 1.07754e-007
Heightened Def Con from 1.07754e-007 +++++to 1.07754e-007
Heightened Def Con from 1.07754e-007 +++++to 1.07754e-007
Heightened Def Con from 1.07754e-007 +++++to 1.07754e-007
Heightened Def Con from 1.07754e-007 +++++to 1.07754e-007
Heightened Def Con from 1.07754e-007 +++++to 1.07754e-007
Heightened Def Con from 1.07754e-007 +++++to 1.07754e-007
Heightened Def Con from 1.07754e-007 +++++to 1.07754e-007
Heightened Def Con from 1.07754e-007 +++++to 1.07754e-007
Heightened Def Con from 1.07754e-007 +++++to 1.07754e-007
Heightened Def Con from 1.07754e-007 +++++to 1.07754e-007
Heightened Def Con from 1.07754e-007 +++++to 1.07754e-007
Heightened Def Con from 1.07754e-007 +++++to 1.07754e-007
Heightened Def Con from 1.07754e-007 +++++to 1.07754e-007
Heightened Def Con from 1.07754e-007 +++++to 1.07754e-007
Heightened Def Con from 1.07754e-007 +++++to 1.07754e-007
Heightened Def Con from 1.07754e-007 +++++to 1.07754e-007
Heightened Def Con from 1.07754e-007 +++++to 1.07754e-007
Heightened Def Con from 1.07754e-007 +++++to 1.07754e-007
Heightened Def Con from 1.07754e-007 +++++to 1.07754e-007
Heightened Def Con from 1.07754e-007 +++++to 1.07754e-007
Heightened Def Con from 1.07754e-007 +++++to 1.07754e-007
Heightened Def Con from 1.07754e-007 +++++to 1.07754e-007
Heightened Def Con from 1.07754e-007 +++++to 1.07754e-007
Heightened Def Con from 1.07754e-007 +++++to 1.07754e-007
Heightened Def Con from 1.07754e-007 +++++to 1.07754e-007
Heightened Def Con from 1.07754e-007 +++++to 1.07754e-007
Heightened Def Con from 1.07754e-007 +++++to 1.07754e-007
Heightened Def Con from 1.07754e-007 +++++to 1.07754e-007
Heightened Def Con from 1.07754e-007 +++++to 1.07754e-007
Heightened Def Con from 1.07754e-007 +++++to 1.07754e-007
Heightened Def Con from 1.07754e-007 +++++to 1.07754e-007
Heightened Def Con from 1.07754e-007 +++++to 1.07754e-007
Heightened Def Con from 1.07754e-007 +++++to 1.07754e-007
Heightened Def Con from 1.07754e-007 +++++to 1.07754e-007
Heightened Def Con from 1.07754e-007 +++++to 1.07754e-007
Heightened Def Con from 1.07754e-007 +++++to 1.07754e-007
Heightened Def Con from 1.07754e-007 +++++to 1.07754e-007
Heightened Def Con from 1.07754e-007 +++++to 1.07754e-007
Heightened Def Con from 1.07754e-007 +++++to 1.07754e-007
Heightened Def Con from 1.07754e-007 +++++to 1.07754e-007
Heightened Def Con from 1.07754e-007 +++++to 1.07754e-007
Heightened Def Con from 1.07754e-007 +++++to 1.07754e-007
Heightened Def Con from 1.07754e-007 +++++to 1.07754e-007
Heightened Def Con from 1.07754e-007 +++++to 1.07754e-007
Heightened Def Con from 1.07754e-007 +++++to 1.07754e-007
Heightened Def Con from 1.07754e-007 +++++to 1.07754e-007
Heightened Def Con from 1.07754e-007 +++++to 1.07754e-007
Heightened Def Con from 1.07754e-007 +++++to 1.07754e-007
Heightened Def Con from 1.07754e-007 +++++to 1.07754e-007
Heightened Def Con from 1.07754e-007 +++++to 1.07754e-007
Heightened Def Con from 1.07754e-007 +++++to 1.07754e-007
Heightened Def Con from 1.07754e-007 +++++to 1.07754e-007
Heightened Def Con from 1.07754e-007 +++++to 1.07754e-007
Heightened Def Con from 1.07754e-007 +++++to 1.07754e-007
Heightened Def Con from 1.07754e-007 +++++to 1.07754e-007
Heightened Def Con from 1.07754e-007 +++++to 1.07754e-007
Heightened Def Con from 1.07754e-007 +++++to 1.07754e-007
Heightened Def Con from 1.07754e-007 +++++to 1.07754e-007
Heightened Def Con from 1.07754e-007 +++++to 1.07754e-007
Heightened Def Con from 1.07754e-007 +++++to 1.07754e-007
Heightened Def Con from 1.07754e-007 +++++to 1.07754e-007
Heightened Def Con from 1.07754e-007 +++++to 1.07754e-007
Heightened Def Con from 1.07754e-007 +++++to 1.07754e-007
Heightened Def Con from 1.07754e-007 +++++to 1.07754e-007
Heightened Def Con from 1.07754e-007 +++++to 1.07754e-007
Heightened Def Con from 1.07754e-007 +++++to 1.07754e-007
Heightened Def Con from 1.07754e-007 +++++to 1.07754e-007
Heightened Def Con from 1.07754e-007 +++++to 1.07754e-007
Heightened Def Con from 1.07754e-007 +++++to 1.07754e-007
Heightened Def Con from 1.07754e-007 +++++to 1.07754e-007
Heightened Def Con from 1.07754e-007 +++++to 1.07754e-007
Heightened Def Con from 1.07754e-007 ++++++to 1.07754e-007
Heightened Def Con from 1.07754e-007 ++++++to 1.07754e-007
Heightened Def Con from 1.07754e-007 ++++++to 1.07754e-007
Heightened Def Con from 1.07754e-007 ++++++to 1.07754e-007
Heightened Def Con from 1.07754e-007 ++++++to 1.07754e-007
Heightened Def Con from 1.07754e-007 ++++++to 1.07754e-007
Heightened Def Con from 1.07754e-007 ++++++to 1.07754e-007
Heightened Def Con from 1.07754e-007 ++++++to 1.07754e-007
Heightened Def Con from 1.07754e-007 ++++++to 1.07754e-007
Heightened Def Con from 1.07754e-007 ++++++to 1.07754e-007
Heightened Def Con from 1.07754e-007 ++++++to 1.07754e-007
Heightened Def Con from 1.07754e-007 ++++++to 1.07754e-007
Heightened Def Con from 1.07754e-007 ++++++to 1.07754e-007
Heightened Def Con from 1.07754e-007 ++++++to 1.07754e-007
Heightened Def Con from 1.07754e-007 ++++++to 1.07754e-007
Heightened Def Con from 1.07754e-007 ++++++to 1.07754e-007
Heightened Def Con from 1.07754e-007 ++++++to 1.07754e-007
Heightened Def Con from 1.07754e-007 ++++++to 1.07754e-007
Heightened Def Con from 1.07754e-007 ++++++to 1.07754e-007
Heightened Def Con from 1.07754e-007 ++++++to 1.07754e-007
Heightened Def Con from 1.07754e-007 ++++++to 1.07754e-007
Heightened Def Con from 1.07754e-007 ++++++to 1.07754e-007
Heightened Def Con from 1.07754e-007 ++++++to 1.07754e-007
Heightened Def Con from 1.07754e-007 ++++++to 1.07754e-007
Heightened Def Con from 1.07754e-007 ++++++to 1.07754e-007
Heightened Def Con from 1.07754e-007 ++++++to 1.07754e-007
Heightened Def Con from 1.07754e-007 ++++++to 1.07754e-007
Heightened Def Con from 1.07754e-007 ++++++to 1.07754e-007
Heightened Def Con from 1.07754e-007 ++++++to 1.07754e-007
Heightened Def Con from 1.07754e-007 ++++++to 1.07754e-007
Heightened Def Con from 1.07754e-007 ++++++to 1.07754e-007
Heightened Def Con from 1.07754e-007 ++++++to 1.07754e-007
Heightened Def Con from 1.07754e-007 ++++++to 1.07754e-007
Heightened Def Con from 1.07754e-007 ++++++to 1.07754e-007
Heightened Def Con from 1.07754e-007 ++++++to 1.07754e-007
Heightened Def Con from 1.07754e-007 ++++++to 1.07754e-007
Heightened Def Con from 1.07754e-007 ++++++to 1.07754e-007
Heightened Def Con from 1.07754e-007 ++++++to 1.07754e-007
Heightened Def Con from 1.07754e-007 ++++++to 1.07754e-007
Heightened Def Con from 1.07754e-007 ++++++to 1.07754e-007
Heightened Def Con from 1.07754e-007 ++++++to 1.07754e-007
Heightened Def Con from 1.07754e-007 ++++++to 1.07754e-007
Heightened Def Con from 1.07754e-007 ++++++to 1.07754e-007
Heightened Def Con from 1.07754e-007 ++++++to 1.07754e-007
Heightened Def Con from 1.07754e-007 ++++++to 1.07754e-007
Heightened Def Con from 1.07754e-007 ++++++to 1.07754e-007
Heightened Def Con from 1.07754e-007 ++++++to 1.07754e-007
Heightened Def Con from 1.07754e-007 ++++++to 1.07754e-007
Heightened Def Con from 1.07754e-007 ++++++to 1.07754e-007
Heightened Def Con from 1.07754e-007 ++++++to 1.07754e-007
Heightened Def Con from 1.07754e-007 ++++++to 1.07754e-007
Heightened Def Con from 1.07754e-007 ++++++to 1.07754e-007
Heightened Def Con from 1.07754e-007 ++++++to 1.07754e-007
Heightened Def Con from 1.07754e-007 ++++++to 1.07754e-007
Heightened Def Con from 1.07754e-007 ++++++to 1.07754e-007
Heightened Def Con from 1.07754e-007 ++++++to 1.07754e-007
Heightened Def Con from 1.07754e-007 ++++++to 1.07754e-007
Heightened Def Con from 1.07754e-007 ++++++to 1.07754e-007
Heightened Def Con from 1.07754e-007 ++++++to 1.07754e-007
Heightened Def Con from 1.07754e-007 ++++++to 1.07754e-007
Heightened Def Con from 1.07754e-007 ++++++to 1.07754e-007
Heightened Def Con from 1.07754e-007 ++++++to 1.07754e-007
Heightened Def Con from 1.07754e-007 ++++++to 1.07754e-007
Heightened Def Con from 1.07754e-007 ++++++to 1.07754e-007
Heightened Def Con from 1.07754e-007 ++++++to 1.07754e-007
Heightened Def Con from 1.07754e-007 ++++++to 1.07754e-007
Heightened Def Con from 1.07754e-007 ++++++to 1.07754e-007
Heightened Def Con from 1.07754e-007 ++++++to 1.07754e-007
Heightened Def Con from 1.07754e-007 ++++++to 1.07754e-007
Heightened Def Con from 1.07754e-007 ++++++to 1.07754e-007
Heightened Def Con from 1.07754e-007 ++++++to 1.07754e-007
Heightened Def Con from 1.07754e-007 ++++++to 1.07754e-007
Heightened Def Con from 1.07754e-007 ++++++to 1.07754e-007
Heightened Def Con from 1.07754e-007 ++++++to 1.07754e-007
Heightened Def Con from 1.07754e-007 ++++++to 1.07754e-007
Heightened Def Con from 1.07754e-007 ++++++to 1.07754e-007
Heightened Def Con from 1.07754e-007 ++++++to 1.07754e-007
Heightened Def Con from 1.07754e-007 ++++++to 1.07754e-007
Heightened Def Con from 1.07754e-007 ++++++to 1.07754e-007
Heightened Def Con from 1.07754e-007 ++++++to 1.07754e-007
Heightened Def Con from 1.07754e-007 ++++++to 1.07754e-007
Heightened Def Con from 1.07754e-007 ++++++to 1.07754e-007
Heightened Def Con from 1.07754e-007 ++++++to 1.07754e-007
Heightened Def Con from 1.07754e-007 ++++++to 1.07754e-007
Heightened Def Con from 1.07754e-007 ++++++to 1.07754e-007
Heightened Def Con from 1.07754e-007 ++++++to 1.07754e-007
Heightened Def Con from 1.07754e-007 ++++++to 1.07754e-007
Heightened Def Con from 1.07754e-007 ++++++to 1.07754e-007
Heightened Def Con from 1.07754e-007 ++++++to 1.07754e-007
Heightened Def Con from 1.07754e-007 ++++++to 1.07754e-007
Heightened Def Con from 1.07754e-007 ++++++to 1.07754e-007
Heightened Def Con from 1.07754e-007 ++++++to 1.07754e-007
Heightened Def Con from 1.07754e-007 ++++++to 1.07754e-007
Heightened Def Con from 1.07754e-007 ++++++to 1.07754e-007
Heightened Def Con from 1.07754e-007 ++++++to 1.07754e-007
Heightened Def Con from 1.07754e-007 ++++++to 1.07754e-007
Heightened Def Con from 1.07754e-007 ++++++to 1.07754e-007
Heightened Def Con from 1.07754e-007 ++++++to 1.07754e-007
Heightened Def Con from 1.07754e-007 ++++++to 1.07754e-007
Heightened Def Con from 1.07754e-007 ++++++to 1.07754e-007
Heightened Def Con from 1.07754e-007 ++++++to 1.07754e-007
Heightened Def Con from 1.07754e-007 ++++++to 1.07754e-007
Heightened Def Con from 1.07754e-007 ++++++to 1.07754e-007
Heightened Def Con from 1.07754e-007 ++++++to 1.07754e-007
Heightened Def Con from 1.07754e-007 ++++++to 1.07754e-007
Heightened Def Con from 1.07754e-007 ++++++to 1.07754e-007
Heightened Def Con from 1.07754e-007 ++++++to 1.07754e-007
Heightened Def Con from 1.07754e-007 ++++++to 1.07754e-007
Heightened Def Con from 1.07754e-007 ++++++to 1.07754e-007
Heightened Def Con from 1.07754e-007 ++++++to 1.07754e-007
Heightened Def Con from 1.07754e-007 ++++++to 1.07754e-007
Heightened Def Con from 1.07754e-007 ++++++to 1.07754e-007
Heightened Def Con from 1.07754e-007 ++++++to 1.07754e-007
Heightened Def Con from 1.07754e-007 ++++++to 1.07754e-007
Heightened Def Con from 1.07754e-007 ++++++to 1.07754e-007
Heightened Def Con from 1.07754e-007 ++++++to 1.07754e-007
Heightened Def Con from 1.07754e-007 ++++++to 1.07754e-007
Heightened Def Con from 1.07754e-007 ++++++to 1.07754e-007
Heightened Def Con from 1.07754e-007 ++++++to 1.07754e-007
Heightened Def Con from 1.07754e-007 ++++++to 1.07754e-007
Heightened Def Con from 1.07754e-007 ++++++to 1.07754e-007
Heightened Def Con from 1.07754e-007 ++++++to 1.07754e-007
Heightened Def Con from 1.07754e-007 ++++++to 1.07754e-007
Heightened Def Con from 1.07754e-007 +++++++to 1.07754e-007
Heightened Def Con from 1.07754e-007 +++++++to 1.07754e-007
Heightened Def Con from 1.07754e-007 +++++++to 1.07754e-007
Heightened Def Con from 1.07754e-007 +++++++to 1.07754e-007
Heightened Def Con from 1.07754e-007 +++++++to 1.07754e-007
Heightened Def Con from 1.07754e-007 +++++++to 1.07754e-007
Heightened Def Con from 1.07754e-007 +++++++to 1.07754e-007
Heightened Def Con from 1.07754e-007 +++++++to 1.07754e-007
Heightened Def Con from 1.07754e-007 +++++++to 1.07754e-007
Heightened Def Con from 1.07754e-007 +++++++to 1.07754e-007
Heightened Def Con from 1.07754e-007 +++++++to 1.07754e-007
Heightened Def Con from 1.07754e-007 +++++++to 1.07754e-007
Heightened Def Con from 1.07754e-007 +++++++to 1.07754e-007
Heightened Def Con from 1.07754e-007 +++++++to 1.07754e-007
Heightened Def Con from 1.07754e-007 +++++++to 1.07754e-007
Heightened Def Con from 1.07754e-007 +++++++to 1.07754e-007
Heightened Def Con from 1.07754e-007 +++++++to 1.07754e-007
Heightened Def Con from 1.07754e-007 +++++++to 1.07754e-007
Heightened Def Con from 1.07754e-007 +++++++to 1.07754e-007
Heightened Def Con from 1.07754e-007 +++++++to 1.07754e-007
Heightened Def Con from 1.07754e-007 +++++++to 1.07754e-007
Heightened Def Con from 1.07754e-007 +++++++to 1.07754e-007
Heightened Def Con from 1.07754e-007 +++++++to 1.07754e-007
Heightened Def Con from 1.07754e-007 +++++++to 1.07754e-007
Heightened Def Con from 1.07754e-007 +++++++to 1.07754e-007
Heightened Def Con from 1.07754e-007 +++++++to 1.07754e-007
Heightened Def Con from 1.07754e-007 +++++++to 1.07754e-007
Heightened Def Con from 1.07754e-007 +++++++to 1.07754e-007
Heightened Def Con from 1.07754e-007 +++++++to 1.07754e-007
Heightened Def Con from 1.07754e-007 +++++++to 1.07754e-007
Heightened Def Con from 1.07754e-007 +++++++to 1.07754e-007
Heightened Def Con from 1.07754e-007 +++++++to 1.07754e-007
Heightened Def Con from 1.07754e-007 +++++++to 1.07754e-007
Heightened Def Con from 1.07754e-007 +++++++to 1.07754e-007
Heightened Def Con from 1.07754e-007 +++++++to 1.07754e-007
Heightened Def Con from 1.07754e-007 +++++++to 1.07754e-007
Heightened Def Con from 1.07754e-007 +++++++to 1.07754e-007
Heightened Def Con from 1.07754e-007 +++++++to 1.07754e-007
Heightened Def Con from 1.07754e-007 +++++++to 1.07754e-007
Heightened Def Con from 1.07754e-007 +++++++to 1.07754e-007
Heightened Def Con from 1.07754e-007 +++++++to 1.07754e-007
Heightened Def Con from 1.07754e-007 +++++++to 1.07754e-007
Heightened Def Con from 1.07754e-007 +++++++to 1.07754e-007
Heightened Def Con from 1.07754e-007 +++++++to 1.07754e-007
Heightened Def Con from 1.07754e-007 +++++++to 1.07754e-007
Heightened Def Con from 1.07754e-007 +++++++to 1.07754e-007
Heightened Def Con from 1.07754e-007 +++++++to 1.07754e-007
Heightened Def Con from 1.07754e-007 +++++++to 1.07754e-007
Heightened Def Con from 1.07754e-007 +++++++to 1.07754e-007
Heightened Def Con from 1.07754e-007 +++++++to 1.07754e-007
Heightened Def Con from 1.07754e-007 +++++++to 1.07754e-007
Heightened Def Con from 1.07754e-007 +++++++to 1.07754e-007
Heightened Def Con from 1.07754e-007 +++++++to 1.07754e-007
Heightened Def Con from 1.07754e-007 +++++++to 1.07754e-007
Heightened Def Con from 1.07754e-007 +++++++to 1.07754e-007
Heightened Def Con from 1.07754e-007 +++++++to 1.07754e-007
Heightened Def Con from 1.07754e-007 +++++++to 1.07754e-007
Heightened Def Con from 1.07754e-007 +++++++to 1.07754e-007
Heightened Def Con from 1.07754e-007 +++++++to 1.07754e-007
Heightened Def Con from 1.07754e-007 +++++++to 1.07754e-007
Heightened Def Con from 1.07754e-007 +++++++to 1.07754e-007
Heightened Def Con from 1.07754e-007 +++++++to 1.07754e-007
Heightened Def Con from 1.07754e-007 +++++++to 1.07754e-007
Heightened Def Con from 1.07754e-007 +++++++to 1.07754e-007
Heightened Def Con from 1.07754e-007 +++++++to 1.07754e-007
Heightened Def Con from 1.07754e-007 +++++++to 1.07754e-007
Heightened Def Con from 1.07754e-007 +++++++to 1.07754e-007
Heightened Def Con from 1.07754e-007 +++++++to 1.07754e-007
Heightened Def Con from 1.07754e-007 +++++++to 1.07754e-007
Heightened Def Con from 1.07754e-007 +++++++to 1.07754e-007
Heightened Def Con from 1.07754e-007 +++++++to 1.07754e-007
Heightened Def Con from 1.07754e-007 +++++++to 1.07754e-007
Heightened Def Con from 1.07754e-007 +++++++to 1.07754e-007
Heightened Def Con from 1.07754e-007 +++++++to 1.07754e-007
Heightened Def Con from 1.07754e-007 +++++++to 1.07754e-007
Heightened Def Con from 1.07754e-007 +++++++to 1.07754e-007
Heightened Def Con from 1.07754e-007 +++++++to 1.07754e-007
Heightened Def Con from 1.07754e-007 +++++++to 1.07754e-007
Heightened Def Con from 1.07754e-007 +++++++to 1.07754e-007
Heightened Def Con from 1.07754e-007 +++++++to 1.07754e-007
Heightened Def Con from 1.07754e-007 +++++++to 1.07754e-007
Heightened Def Con from 1.07754e-007 +++++++to 1.07754e-007
Heightened Def Con from 1.07754e-007 +++++++to 1.07754e-007
Heightened Def Con from 1.07754e-007 +++++++to 1.07754e-007
Heightened Def Con from 1.07754e-007 +++++++to 1.07754e-007
Heightened Def Con from 1.07754e-007 +++++++to 1.07754e-007
Heightened Def Con from 1.07754e-007 +++++++to 1.07754e-007
Heightened Def Con from 1.07754e-007 +++++++to 1.07754e-007
Heightened Def Con from 1.07754e-007 +++++++to 1.07754e-007
Heightened Def Con from 1.07754e-007 +++++++to 1.07754e-007
Heightened Def Con from 1.07754e-007 +++++++to 1.07754e-007
Heightened Def Con from 1.07754e-007 +++++++to 1.07754e-007
Heightened Def Con from 1.07754e-007 +++++++to 1.07754e-007
Heightened Def Con from 1.07754e-007 +++++++to 1.07754e-007
Heightened Def Con from 1.07754e-007 +++++++to 1.07754e-007
Heightened Def Con from 1.07754e-007 +++++++to 1.07754e-007
Heightened Def Con from 1.07754e-007 +++++++to 1.07754e-007
Heightened Def Con from 1.07754e-007 +++++++to 1.07754e-007
Heightened Def Con from 1.07754e-007 +++++++to 1.07754e-007
Heightened Def Con from 1.07754e-007 +++++++to 1.07754e-007
Heightened Def Con from 1.07754e-007 +++++++to 1.07754e-007
Heightened Def Con from 1.07754e-007 +++++++to 1.07754e-007
Heightened Def Con from 1.07754e-007 +++++++to 1.07754e-007
Heightened Def Con from 1.07754e-007 +++++++to 1.07754e-007
Heightened Def Con from 1.07754e-007 +++++++to 1.07754e-007
Heightened Def Con from 1.07754e-007 +++++++to 1.07754e-007
Heightened Def Con from 1.07754e-007 +++++++to 1.07754e-007
Heightened Def Con from 1.07754e-007 +++++++to 1.07754e-007
Heightened Def Con from 1.07754e-007 +++++++to 1.07754e-007
Heightened Def Con from 1.07754e-007 +++++++to 1.07754e-007
Heightened Def Con from 1.07754e-007 +++++++to 1.07754e-007
Heightened Def Con from 1.07754e-007 +++++++to 1.07754e-007
Heightened Def Con from 1.07754e-007 +++++++to 1.07754e-007
Heightened Def Con from 1.07754e-007 +++++++to 1.07754e-007
Heightened Def Con from 1.07754e-007 +++++++to 1.07754e-007
Heightened Def Con from 1.07754e-007 +++++++to 1.07754e-007
Heightened Def Con from 1.07754e-007 +++++++to 1.07754e-007
Heightened Def Con from 1.07754e-007 +++++++to 1.07754e-007
Heightened Def Con from 1.07754e-007 +++++++to 1.07754e-007
Heightened Def Con from 1.07754e-007 +++++++to 1.07754e-007
Heightened Def Con from 1.07754e-007 +++++++to 1.07754e-007
Heightened Def Con from 1.07754e-007 +++++++to 1.07754e-007
Heightened Def Con from 1.07754e-007 +++++++to 1.07754e-007
Heightened Def Con from 1.07754e-007 +++++++to 1.07754e-007
Heightened Def Con from 1.07754e-007 +++++++to 1.07754e-007
Heightened Def Con from 1.07754e-007 +++++++to 1.07754e-007
Heightened Def Con from 1.07754e-007 +++++++to 1.07754e-007
Heightened Def Con from 1.07754e-007 +++++++to 1.07754e-007
Heightened Def Con from 1.07754e-007 +++++++to 1.07754e-007
Heightened Def Con from 1.07754e-007 +++++++to 1.07754e-007
Heightened Def Con from 1.07754e-007 +++++++to 1.07754e-007
Heightened Def Con from 1.07754e-007 +++++++to 1.07754e-007
Heightened Def Con from 1.07754e-007 +++++++to 1.07754e-007
Heightened Def Con from 1.07754e-007 +++++++to 1.07754e-007
Heightened Def Con from 1.07754e-007 +++++++to 1.07754e-007
Heightened Def Con from 1.07754e-007 +++++++to 1.07754e-007
Heightened Def Con from 1.07754e-007 +++++++to 1.07754e-007
Heightened Def Con from 1.07754e-007 +++++++to 1.07754e-007
Heightened Def Con from 1.07754e-007 +++++++to 1.07754e-007
Heightened Def Con from 1.07754e-007 +++++++to 1.07754e-007
Heightened Def Con from 1.07754e-007 +++++++to 1.07754e-007
Heightened Def Con from 1.07754e-007 +++++++to 1.07754e-007
Heightened Def Con from 1.07754e-007 +++++++to 1.07754e-007
Heightened Def Con from 1.07754e-007 +++++++to 1.07754e-007
Heightened Def Con from 1.07754e-007 +++++++to 1.07754e-007
Heightened Def Con from 1.07754e-007 +++++++to 1.07754e-007
Heightened Def Con from 1.07754e-007 +++++++to 1.07754e-007
Heightened Def Con from 1.07754e-007 +++++++to 1.07754e-007
Heightened Def Con from 1.07754e-007 +++++++to 1.07754e-007
Heightened Def Con from 1.07754e-007 +++++++to 1.07754e-007
Heightened Def Con from 1.07754e-007 ++++++++to 1.07754e-007
Heightened Def Con from 1.07754e-007 ++++++++to 1.07754e-007
Heightened Def Con from 1.07754e-007 ++++++++to 1.07754e-007
Heightened Def Con from 1.07754e-007 ++++++++to 1.07754e-007
Heightened Def Con from 1.07754e-007 ++++++++to 1.07754e-007
Heightened Def Con from 1.07754e-007 ++++++++to 1.07754e-007
Heightened Def Con from 1.07754e-007 ++++++++to 1.07754e-007
Heightened Def Con from 1.07754e-007 ++++++++to 1.07754e-007
Heightened Def Con from 1.07754e-007 ++++++++to 1.07754e-007
Heightened Def Con from 1.07754e-007 ++++++++to 1.07754e-007
Heightened Def Con from 1.07754e-007 ++++++++to 1.07754e-007
Heightened Def Con from 1.07754e-007 ++++++++to 1.07754e-007
Heightened Def Con from 1.07754e-007 ++++++++to 1.07754e-007
Heightened Def Con from 1.07754e-007 ++++++++to 1.07754e-007
Heightened Def Con from 1.07754e-007 ++++++++to 1.07754e-007
Heightened Def Con from 1.07754e-007 ++++++++to 1.07754e-007
Heightened Def Con from 1.07754e-007 ++++++++to 1.07754e-007
Heightened Def Con from 1.07754e-007 ++++++++to 1.07754e-007
Heightened Def Con from 1.07754e-007 ++++++++to 1.07754e-007
Heightened Def Con from 1.07754e-007 ++++++++to 1.07754e-007
Heightened Def Con from 1.07754e-007 ++++++++to 1.07754e-007
Heightened Def Con from 1.07754e-007 ++++++++to 1.07754e-007
Heightened Def Con from 1.07754e-007 ++++++++to 1.07754e-007
Heightened Def Con from 1.07754e-007 ++++++++to 1.07754e-007
Heightened Def Con from 1.07754e-007 ++++++++to 1.07754e-007
Heightened Def Con from 1.07754e-007 ++++++++to 1.07754e-007
Heightened Def Con from 1.07754e-007 ++++++++to 1.07754e-007
Heightened Def Con from 1.07754e-007 ++++++++to 1.07754e-007
Heightened Def Con from 1.07754e-007 ++++++++to 1.07754e-007
Heightened Def Con from 1.07754e-007 ++++++++to 1.07754e-007
Heightened Def Con from 1.07754e-007 ++++++++to 1.07754e-007
Heightened Def Con from 1.07754e-007 ++++++++to 1.07754e-007
Heightened Def Con from 1.07754e-007 ++++++++to 1.07754e-007
Heightened Def Con from 1.07754e-007 ++++++++to 1.07754e-007
Heightened Def Con from 1.07754e-007 ++++++++to 1.07754e-007
Heightened Def Con from 1.07754e-007 ++++++++to 1.07754e-007
Heightened Def Con from 1.07754e-007 ++++++++to 1.07754e-007
Heightened Def Con from 1.07754e-007 ++++++++to 1.07754e-007
Heightened Def Con from 1.07754e-007 ++++++++to 1.07754e-007
Heightened Def Con from 1.07754e-007 ++++++++to 1.07754e-007
Heightened Def Con from 1.07754e-007 ++++++++to 1.07754e-007
Heightened Def Con from 1.07754e-007 ++++++++to 1.07754e-007
Heightened Def Con from 1.07754e-007 ++++++++to 1.07754e-007
Heightened Def Con from 1.07754e-007 ++++++++to 1.07754e-007
Heightened Def Con from 1.07754e-007 ++++++++to 1.07754e-007
Heightened Def Con from 1.07754e-007 ++++++++to 1.07754e-007
Heightened Def Con from 1.07754e-007 ++++++++to 1.07754e-007
Heightened Def Con from 1.07754e-007 ++++++++to 1.07754e-007
Heightened Def Con from 1.07754e-007 ++++++++to 1.07754e-007
Heightened Def Con from 1.07754e-007 ++++++++to 1.07754e-007
Heightened Def Con from 1.07754e-007 ++++++++to 1.07754e-007
Heightened Def Con from 1.07754e-007 ++++++++to 1.07754e-007
Heightened Def Con from 1.07754e-007 ++++++++to 1.07754e-007
Heightened Def Con from 1.07754e-007 ++++++++to 1.07754e-007
Heightened Def Con from 1.07754e-007 ++++++++to 1.07754e-007
Heightened Def Con from 1.07754e-007 ++++++++to 1.07754e-007
Heightened Def Con from 1.07754e-007 ++++++++to 1.07754e-007
Heightened Def Con from 1.07754e-007 ++++++++to 1.07754e-007
Heightened Def Con from 1.07754e-007 ++++++++to 1.07754e-007
Heightened Def Con from 1.07754e-007 ++++++++to 1.07754e-007
Heightened Def Con from 1.07754e-007 ++++++++to 1.07754e-007
Heightened Def Con from 1.07754e-007 ++++++++to 1.07754e-007
Heightened Def Con from 1.07754e-007 ++++++++to 1.07754e-007
Heightened Def Con from 1.07754e-007 ++++++++to 1.07754e-007
Heightened Def Con from 1.07754e-007 ++++++++to 1.07754e-007
Heightened Def Con from 1.07754e-007 ++++++++to 1.07754e-007
Heightened Def Con from 1.07754e-007 ++++++++to 1.07754e-007
Heightened Def Con from 1.07754e-007 ++++++++to 1.07754e-007
Heightened Def Con from 1.07754e-007 ++++++++to 1.07754e-007
Heightened Def Con from 1.07754e-007 ++++++++to 1.07754e-007
Heightened Def Con from 1.07754e-007 ++++++++to 1.07754e-007
Heightened Def Con from 1.07754e-007 ++++++++to 1.07754e-007
Heightened Def Con from 1.07754e-007 ++++++++to 1.07754e-007
Heightened Def Con from 1.07754e-007 ++++++++to 1.07754e-007
Heightened Def Con from 1.07754e-007 ++++++++to 1.07754e-007
Heightened Def Con from 1.07754e-007 ++++++++to 1.07754e-007
Heightened Def Con from 1.07754e-007 ++++++++to 1.07754e-007
Heightened Def Con from 1.07754e-007 ++++++++to 1.07754e-007
Heightened Def Con from 1.07754e-007 ++++++++to 1.07754e-007
Heightened Def Con from 1.07754e-007 ++++++++to 1.07754e-007
Heightened Def Con from 1.07754e-007 ++++++++to 1.07754e-007
Heightened Def Con from 1.07754e-007 ++++++++to 1.07754e-007
Heightened Def Con from 1.07754e-007 ++++++++to 1.07754e-007
Heightened Def Con from 1.07754e-007 ++++++++to 1.07754e-007
Heightened Def Con from 1.07754e-007 ++++++++to 1.07754e-007
Heightened Def Con from 1.07754e-007 ++++++++to 1.07754e-007
Heightened Def Con from 1.07754e-007 ++++++++to 1.07754e-007
Heightened Def Con from 1.07754e-007 ++++++++to 1.07754e-007
Heightened Def Con from 1.07754e-007 ++++++++to 1.07754e-007
Heightened Def Con from 1.07754e-007 ++++++++to 1.07754e-007
Heightened Def Con from 1.07754e-007 ++++++++to 1.07754e-007
Heightened Def Con from 1.07754e-007 ++++++++to 1.07754e-007
Heightened Def Con from 1.07754e-007 ++++++++to 1.07754e-007
Heightened Def Con from 1.07754e-007 ++++++++to 1.07754e-007
Heightened Def Con from 1.07754e-007 ++++++++to 1.07754e-007
Heightened Def Con from 1.07754e-007 ++++++++to 1.07754e-007
Heightened Def Con from 1.07754e-007 ++++++++to 1.07754e-007
Heightened Def Con from 1.07754e-007 ++++++++to 1.07754e-007
Heightened Def Con from 1.07754e-007 ++++++++to 1.07754e-007
Heightened Def Con from 1.07754e-007 ++++++++to 1.07754e-007
Heightened Def Con from 1.07754e-007 ++++++++to 1.07754e-007
Heightened Def Con from 1.07754e-007 ++++++++to 1.07754e-007
Heightened Def Con from 1.07754e-007 ++++++++to 1.07754e-007
Heightened Def Con from 1.07754e-007 ++++++++to 1.07754e-007
Heightened Def Con from 1.07754e-007 ++++++++to 1.07754e-007
Heightened Def Con from 1.07754e-007 ++++++++to 1.07754e-007
Heightened Def Con from 1.07754e-007 ++++++++to 1.07754e-007
Heightened Def Con from 1.07754e-007 ++++++++to 1.07754e-007
Heightened Def Con from 1.07754e-007 ++++++++to 1.07754e-007
Heightened Def Con from 1.07754e-007 ++++++++to 1.07754e-007
Heightened Def Con from 1.07754e-007 ++++++++to 1.07754e-007
Heightened Def Con from 1.07754e-007 ++++++++to 1.07754e-007
Heightened Def Con from 1.07754e-007 ++++++++to 1.07754e-007
Heightened Def Con from 1.07754e-007 ++++++++to 1.07754e-007
Heightened Def Con from 1.07754e-007 ++++++++to 1.07754e-007
Heightened Def Con from 1.07754e-007 ++++++++to 1.07754e-007
Heightened Def Con from 1.07754e-007 ++++++++to 1.07754e-007
Heightened Def Con from 1.07754e-007 ++++++++to 1.07754e-007
Heightened Def Con from 1.07754e-007 ++++++++to 1.07754e-007
Heightened Def Con from 1.07754e-007 ++++++++to 1.07754e-007
Heightened Def Con from 1.07754e-007 ++++++++to 1.07754e-007
Heightened Def Con from 1.07754e-007 ++++++++to 1.07754e-007
Heightened Def Con from 1.07754e-007 ++++++++to 1.07754e-007
Heightened Def Con from 1.07754e-007 ++++++++to 1.07754e-007
Heightened Def Con from 1.07754e-007 ++++++++to 1.07754e-007
Heightened Def Con from 1.07754e-007 ++++++++to 1.07754e-007
Heightened Def Con from 1.07754e-007 ++++++++to 1.07754e-007
Heightened Def Con from 1.07754e-007 ++++++++to 1.07754e-007
Heightened Def Con from 1.07754e-007 ++++++++to 1.07754e-007
Heightened Def Con from 1.07754e-007 ++++++++to 1.07754e-007
Heightened Def Con from 1.07754e-007 ++++++++to 1.07754e-007
Heightened Def Con from 1.07754e-007 ++++++++to 1.07754e-007
Heightened Def Con from 1.07754e-007 ++++++++to 1.07754e-007
Heightened Def Con from 1.07754e-007 ++++++++to 1.07754e-007
Heightened Def Con from 1.07754e-007 ++++++++to 1.07754e-007
Heightened Def Con from 1.07754e-007 ++++++++to 1.07754e-007
Heightened Def Con from 1.07754e-007 ++++++++to 1.07754e-007
Heightened Def Con from 1.07754e-007 ++++++++to 1.07754e-007
Heightened Def Con from 1.07754e-007 ++++++++to 1.07754e-007
Heightened Def Con from 1.07754e-007 ++++++++to 1.07754e-007
Heightened Def Con from 1.07754e-007 ++++++++to 1.07754e-007
Heightened Def Con from 1.07754e-007 ++++++++to 1.07754e-007
Heightened Def Con from 1.07754e-007 ++++++++to 1.07754e-007
Heightened Def Con from 1.07754e-007 ++++++++to 1.07754e-007
Heightened Def Con from 1.07754e-007 ++++++++to 1.07754e-007
Heightened Def Con from 1.07754e-007 ++++++++to 1.07754e-007
Heightened Def Con from 1.07754e-007 ++++++++to 1.07754e-007
Heightened Def Con from 1.07754e-007 ++++++++to 1.07754e-007
Heightened Def Con from 1.07754e-007 ++++++++to 1.07754e-007
Heightened Def Con from 1.07754e-007 ++++++++to 1.07754e-007
Heightened Def Con from 1.07754e-007 ++++++++to 1.07754e-007
Heightened Def Con from 1.07754e-007 ++++++++to 1.07754e-007
Heightened Def Con from 1.07754e-007 ++++++++to 1.07754e-007
Heightened Def Con from 1.07754e-007 ++++++++to 1.07754e-007
Heightened Def Con from 1.07754e-007 ++++++++to 1.07754e-007
Heightened Def Con from 1.07754e-007 ++++++++to 1.07754e-007
Heightened Def Con from 1.07754e-007 ++++++++to 1.07754e-007
Heightened Def Con from 1.07754e-007 ++++++++to 1.07754e-007
Heightened Def Con from 1.07754e-007 ++++++++to 1.07754e-007
Heightened Def Con from 1.07754e-007 ++++++++to 1.07754e-007
Heightened Def Con from 1.07754e-007 ++++++++to 1.07754e-007
Heightened Def Con from 1.07754e-007 ++++++++to 1.07754e-007
Heightened Def Con from 1.07754e-007 ++++++++to 1.07754e-007
Heightened Def Con from 1.07754e-007 +++++++++to 1.07754e-007
Heightened Def Con from 1.07754e-007 +++++++++to 1.07754e-007
Heightened Def Con from 1.07754e-007 +++++++++to 1.07754e-007
Heightened Def Con from 1.07754e-007 +++++++++to 1.07754e-007
Heightened Def Con from 1.07754e-007 +++++++++to 1.07754e-007
Heightened Def Con from 1.07754e-007 +++++++++to 1.07754e-007
Heightened Def Con from 1.07754e-007 +++++++++to 1.07754e-007
Heightened Def Con from 1.07754e-007 +++++++++to 1.07754e-007
Heightened Def Con from 1.07754e-007 +++++++++to 1.07754e-007
Heightened Def Con from 1.07754e-007 +++++++++to 1.07754e-007
Heightened Def Con from 1.07754e-007 +++++++++to 1.07754e-007
Heightened Def Con from 1.07754e-007 +++++++++to 1.07754e-007
Heightened Def Con from 1.07754e-007 +++++++++to 1.07754e-007
Heightened Def Con from 1.07754e-007 +++++++++to 1.07754e-007
Heightened Def Con from 1.07754e-007 +++++++++to 1.07754e-007
Heightened Def Con from 1.07754e-007 +++++++++to 1.07754e-007
Heightened Def Con from 1.07754e-007 +++++++++to 1.07754e-007
Heightened Def Con from 1.07754e-007 +++++++++to 1.07754e-007
Heightened Def Con from 1.07754e-007 +++++++++to 1.07754e-007
Heightened Def Con from 1.07754e-007 +++++++++to 1.07754e-007
Heightened Def Con from 1.07754e-007 +++++++++to 1.07754e-007
Heightened Def Con from 1.07754e-007 +++++++++to 1.07754e-007
Heightened Def Con from 1.07754e-007 +++++++++to 1.07754e-007
Heightened Def Con from 1.07754e-007 +++++++++to 1.07754e-007
Heightened Def Con from 1.07754e-007 +++++++++to 1.07754e-007
Heightened Def Con from 1.07754e-007 +++++++++to 1.07754e-007
Heightened Def Con from 1.07754e-007 +++++++++to 1.07754e-007
Heightened Def Con from 1.07754e-007 +++++++++to 1.07754e-007
Heightened Def Con from 1.07754e-007 +++++++++to 1.07754e-007
Heightened Def Con from 1.07754e-007 +++++++++to 1.07754e-007
Heightened Def Con from 1.07754e-007 +++++++++to 1.07754e-007
Heightened Def Con from 1.07754e-007 +++++++++to 1.07754e-007
Heightened Def Con from 1.07754e-007 +++++++++to 1.07754e-007
Heightened Def Con from 1.07754e-007 +++++++++to 1.07754e-007
Heightened Def Con from 1.07754e-007 +++++++++to 1.07754e-007
Heightened Def Con from 1.07754e-007 +++++++++to 1.07754e-007
Heightened Def Con from 1.07754e-007 +++++++++to 1.07754e-007
Heightened Def Con from 1.07754e-007 +++++++++to 1.07754e-007
Heightened Def Con from 1.07754e-007 +++++++++to 1.07754e-007
Heightened Def Con from 1.07754e-007 +++++++++to 1.07754e-007
Heightened Def Con from 1.07754e-007 +++++++++to 1.07754e-007
Heightened Def Con from 1.07754e-007 +++++++++to 1.07754e-007
Heightened Def Con from 1.07754e-007 +++++++++to 1.07754e-007
Heightened Def Con from 1.07754e-007 +++++++++to 1.07754e-007
Heightened Def Con from 1.07754e-007 +++++++++to 1.07754e-007
Heightened Def Con from 1.07754e-007 +++++++++to 1.07754e-007
Heightened Def Con from 1.07754e-007 +++++++++to 1.07754e-007
Heightened Def Con from 1.07754e-007 +++++++++to 1.07754e-007
Heightened Def Con from 1.07754e-007 +++++++++to 1.07754e-007
Heightened Def Con from 1.07754e-007 +++++++++to 1.07754e-007
Heightened Def Con from 1.07754e-007 +++++++++to 1.07754e-007
Heightened Def Con from 1.07754e-007 +++++++++to 1.07754e-007
Heightened Def Con from 1.07754e-007 +++++++++to 1.07754e-007
Heightened Def Con from 1.07754e-007 +++++++++to 1.07754e-007
Heightened Def Con from 1.07754e-007 +++++++++to 1.07754e-007
Heightened Def Con from 1.07754e-007 +++++++++to 1.07754e-007
Heightened Def Con from 1.07754e-007 +++++++++to 1.07754e-007
Heightened Def Con from 1.07754e-007 +++++++++to 1.07754e-007
Heightened Def Con from 1.07754e-007 +++++++++to 1.07754e-007
Heightened Def Con from 1.07754e-007 +++++++++to 1.07754e-007
Heightened Def Con from 1.07754e-007 +++++++++to 1.07754e-007
Heightened Def Con from 1.07754e-007 +++++++++to 1.07754e-007
Heightened Def Con from 1.07754e-007 +++++++++to 1.07754e-007
Heightened Def Con from 1.07754e-007 +++++++++to 1.07754e-007
Heightened Def Con from 1.07754e-007 +++++++++to 1.07754e-007
Heightened Def Con from 1.07754e-007 +++++++++to 1.07754e-007
Heightened Def Con from 1.07754e-007 +++++++++to 1.07754e-007
Heightened Def Con from 1.07754e-007 +++++++++to 1.07754e-007
Heightened Def Con from 1.07754e-007 +++++++++to 1.07754e-007
Heightened Def Con from 1.07754e-007 +++++++++to 1.07754e-007
Heightened Def Con from 1.07754e-007 +++++++++to 1.07754e-007
Heightened Def Con from 1.07754e-007 +++++++++to 1.07754e-007
Heightened Def Con from 1.07754e-007 +++++++++to 1.07754e-007
Heightened Def Con from 1.07754e-007 +++++++++to 1.07754e-007
Heightened Def Con from 1.07754e-007 +++++++++to 1.07754e-007
Heightened Def Con from 1.07754e-007 +++++++++to 1.07754e-007
Heightened Def Con from 1.07754e-007 +++++++++to 1.07754e-007
Heightened Def Con from 1.07754e-007 +++++++++to 1.07754e-007
Heightened Def Con from 1.07754e-007 +++++++++to 1.07754e-007
Heightened Def Con from 1.07754e-007 +++++++++to 1.07754e-007
Heightened Def Con from 1.07754e-007 +++++++++to 1.07754e-007
Heightened Def Con from 1.07754e-007 +++++++++to 1.07754e-007
Heightened Def Con from 1.07754e-007 +++++++++to 1.07754e-007
Heightened Def Con from 1.07754e-007 +++++++++to 1.07754e-007
Heightened Def Con from 1.07754e-007 +++++++++to 1.07754e-007
Heightened Def Con from 1.07754e-007 +++++++++to 1.07754e-007
Heightened Def Con from 1.07754e-007 +++++++++to 1.07754e-007
Heightened Def Con from 1.07754e-007 +++++++++to 1.07754e-007
Heightened Def Con from 1.07754e-007 +++++++++to 1.07754e-007
Heightened Def Con from 1.07754e-007 +++++++++to 1.07754e-007
Heightened Def Con from 1.07754e-007 +++++++++to 1.07754e-007
Heightened Def Con from 1.07754e-007 +++++++++to 1.07754e-007
Heightened Def Con from 1.07754e-007 +++++++++to 1.07754e-007
Heightened Def Con from 1.07754e-007 +++++++++to 1.07754e-007
Heightened Def Con from 1.07754e-007 +++++++++to 1.07754e-007
Heightened Def Con from 1.07754e-007 +++++++++to 1.07754e-007
Heightened Def Con from 1.07754e-007 +++++++++to 1.07754e-007
Heightened Def Con from 1.07754e-007 +++++++++to 1.07754e-007
Heightened Def Con from 1.07754e-007 +++++++++to 1.07754e-007
Heightened Def Con from 1.07754e-007 +++++++++to 1.07754e-007
Heightened Def Con from 1.07754e-007 +++++++++to 1.07754e-007
Heightened Def Con from 1.07754e-007 +++++++++to 1.07754e-007
Heightened Def Con from 1.07754e-007 +++++++++to 1.07754e-007
Heightened Def Con from 1.07754e-007 +++++++++to 1.07754e-007
Heightened Def Con from 1.07754e-007 +++++++++to 1.07754e-007
Heightened Def Con from 1.07754e-007 +++++++++to 1.07754e-007
Heightened Def Con from 1.07754e-007 +++++++++to 1.07754e-007
Heightened Def Con from 1.07754e-007 +++++++++to 1.07754e-007
Heightened Def Con from 1.07754e-007 +++++++++to 1.07754e-007
Heightened Def Con from 1.07754e-007 +++++++++to 1.07754e-007
Heightened Def Con from 1.07754e-007 +++++++++to 1.07754e-007
Heightened Def Con from 1.07754e-007 +++++++++to 1.07754e-007
Heightened Def Con from 1.07754e-007 +++++++++to 1.07754e-007
Heightened Def Con from 1.07754e-007 +++++++++to 1.07754e-007
Heightened Def Con from 1.07754e-007 +++++++++to 1.07754e-007
Heightened Def Con from 1.07754e-007 +++++++++to 1.07754e-007
Heightened Def Con from 1.07754e-007 +++++++++to 1.07754e-007
Heightened Def Con from 1.07754e-007 +++++++++to 1.07754e-007
Heightened Def Con from 1.07754e-007 +++++++++to 1.07754e-007
Heightened Def Con from 1.07754e-007 +++++++++to 1.07754e-007
Heightened Def Con from 1.07754e-007 +++++++++to 1.07754e-007
Heightened Def Con from 1.07754e-007 +++++++++to 1.07754e-007
Heightened Def Con from 1.07754e-007 +++++++++to 1.07754e-007
Heightened Def Con from 1.07754e-007 +++++++++to 1.07754e-007
Heightened Def Con from 1.07754e-007 +++++++++to 1.07754e-007
Heightened Def Con from 1.07754e-007 +++++++++to 1.07754e-007
Heightened Def Con from 1.07754e-007 +++++++++to 1.07754e-007
Heightened Def Con from 1.07754e-007 +++++++++to 1.07754e-007
Heightened Def Con from 1.07754e-007 +++++++++to 1.07754e-007
Heightened Def Con from 1.07754e-007 +++++++++to 1.07754e-007
Heightened Def Con from 1.07754e-007 +++++++++to 1.07754e-007
Heightened Def Con from 1.07754e-007 +++++++++to 1.07754e-007
Heightened Def Con from 1.07754e-007 +++++++++to 1.07754e-007
Heightened Def Con from 1.07754e-007 +++++++++to 1.07754e-007
Heightened Def Con from 1.07754e-007 +++++++++to 1.07754e-007
Heightened Def Con from 1.07754e-007 +++++++++to 1.07754e-007
Heightened Def Con from 1.07754e-007 +++++++++to 1.07754e-007
Heightened Def Con from 1.07754e-007 +++++++++to 1.07754e-007
Heightened Def Con from 1.07754e-007 +++++++++to 1.07754e-007
Heightened Def Con from 1.07754e-007 +++++++++to 1.07754e-007
Heightened Def Con from 1.07754e-007 +++++++++to 1.07754e-007
Heightened Def Con from 1.07754e-007 +++++++++to 1.07754e-007
Heightened Def Con from 1.07754e-007 +++++++++to 1.07754e-007
Heightened Def Con from 1.07754e-007 +++++++++to 1.07754e-007
Heightened Def Con from 1.07754e-007 +++++++++to 1.07754e-007
Heightened Def Con from 1.07754e-007 +++++++++to 1.07754e-007
Heightened Def Con from 1.07754e-007 +++++++++to 1.07754e-007
Heightened Def Con from 1.07754e-007 +++++++++to 1.07754e-007
Heightened Def Con from 1.07754e-007 +++++++++to 1.07754e-007
Heightened Def Con from 1.07754e-007 +++++++++to 1.07754e-007
Heightened Def Con from 1.07754e-007 +++++++++to 1.07754e-007
Heightened Def Con from 1.07754e-007 +++++++++to 1.07754e-007
Heightened Def Con from 1.07754e-007 +++++++++to 1.07754e-007
Heightened Def Con from 1.07754e-007 +++++++++to 1.07754e-007
Heightened Def Con from 1.07754e-007 +++++++++to 1.07754e-007
Heightened Def Con from 1.07754e-007 +++++++++to 1.07754e-007
Heightened Def Con from 1.07754e-007 +++++++++to 1.07754e-007
Heightened Def Con from 1.07754e-007 +++++++++to 1.07754e-007
Heightened Def Con from 1.07754e-007 +++++++++to 1.07754e-007
Heightened Def Con from 1.07754e-007 +++++++++to 1.07754e-007
Heightened Def Con from 1.07754e-007 +++++++++to 1.07754e-007
Heightened Def Con from 1.07754e-007 +++++++++to 1.07754e-007
Heightened Def Con from 1.07754e-007 +++++++++to 1.07754e-007
Heightened Def Con from 1.07754e-007 +++++++++to 1.07754e-007
Heightened Def Con from 1.07754e-007 +++++++++to 1.07754e-007
Heightened Def Con from 1.07754e-007 +++++++++to 1.07754e-007
Heightened Def Con from 1.07754e-007 +++++++++to 1.07754e-007
Heightened Def Con from 1.07754e-007 +++++++++to 1.07754e-007
Heightened Def Con from 1.07754e-007 +++++++++to 1.07754e-007
Heightened Def Con from 1.07754e-007 +++++++++to 1.07754e-007
Heightened Def Con from 1.07754e-007 +++++++++to 1.07754e-007
Heightened Def Con from 1.07754e-007 +++++++++to 1.07754e-007
Heightened Def Con from 1.07754e-007 +++++++++to 1.07754e-007
Heightened Def Con from 1.07754e-007 +++++++++to 1.07754e-007
Heightened Def Con from 1.07754e-007 +++++++++to 1.07754e-007
Heightened Def Con from 1.07754e-007 +++++++++to 1.07754e-007
Heightened Def Con from 1.07754e-007 +++++++++to 1.07754e-007
Heightened Def Con from 1.07754e-007 ++++++++++to 1.07754e-007
Heightened Def Con from 1.07754e-007 ++++++++++to 1.07754e-007
Heightened Def Con from 1.07754e-007 ++++++++++to 1.07754e-007
Heightened Def Con from 1.07754e-007 ++++++++++to 1.07754e-007
Heightened Def Con from 1.07754e-007 ++++++++++to 1.07754e-007
Heightened Def Con from 1.07754e-007 ++++++++++to 1.07754e-007
Heightened Def Con from 1.07754e-007 ++++++++++to 1.07754e-007
Heightened Def Con from 1.07754e-007 ++++++++++to 1.07754e-007
Heightened Def Con from 1.07754e-007 ++++++++++to 1.07754e-007
Heightened Def Con from 1.07754e-007 ++++++++++to 1.07754e-007
Heightened Def Con from 1.07754e-007 ++++++++++to 1.07754e-007
Heightened Def Con from 1.07754e-007 ++++++++++to 1.07754e-007
Heightened Def Con from 1.07754e-007 ++++++++++to 1.07754e-007
Heightened Def Con from 1.07754e-007 ++++++++++to 1.07754e-007
Heightened Def Con from 1.07754e-007 ++++++++++to 1.07754e-007
Heightened Def Con from 1.07754e-007 ++++++++++to 1.07754e-007
Heightened Def Con from 1.07754e-007 ++++++++++to 1.07754e-007
Heightened Def Con from 1.07754e-007 ++++++++++to 1.07754e-007
Heightened Def Con from 1.07754e-007 ++++++++++to 1.07754e-007
Heightened Def Con from 1.07754e-007 ++++++++++to 1.07754e-007
Heightened Def Con from 1.07754e-007 ++++++++++to 1.07754e-007
Heightened Def Con from 1.07754e-007 ++++++++++to 1.07754e-007
Heightened Def Con from 1.07754e-007 ++++++++++to 1.07754e-007
Heightened Def Con from 1.07754e-007 ++++++++++to 1.07754e-007
Heightened Def Con from 1.07754e-007 ++++++++++to 1.07754e-007
Heightened Def Con from 1.07754e-007 ++++++++++to 1.07754e-007
Heightened Def Con from 1.07754e-007 ++++++++++to 1.07754e-007
Heightened Def Con from 1.07754e-007 ++++++++++to 1.07754e-007
Heightened Def Con from 1.07754e-007 ++++++++++to 1.07754e-007
Heightened Def Con from 1.07754e-007 ++++++++++to 1.07754e-007
Heightened Def Con from 1.07754e-007 ++++++++++to 1.07754e-007
Heightened Def Con from 1.07754e-007 ++++++++++to 1.07754e-007
Heightened Def Con from 1.07754e-007 ++++++++++to 1.07754e-007
Heightened Def Con from 1.07754e-007 ++++++++++to 1.07754e-007
Heightened Def Con from 1.07754e-007 ++++++++++to 1.07754e-007
Heightened Def Con from 1.07754e-007 ++++++++++to 1.07754e-007
Heightened Def Con from 1.07754e-007 ++++++++++to 1.07754e-007
Heightened Def Con from 1.07754e-007 ++++++++++to 1.07754e-007
Heightened Def Con from 1.07754e-007 ++++++++++to 1.07754e-007
Heightened Def Con from 1.07754e-007 ++++++++++to 1.07754e-007
Heightened Def Con from 1.07754e-007 ++++++++++to 1.07754e-007
Heightened Def Con from 1.07754e-007 ++++++++++to 1.07754e-007
Heightened Def Con from 1.07754e-007 ++++++++++to 1.07754e-007
Heightened Def Con from 1.07754e-007 ++++++++++to 1.07754e-007
Heightened Def Con from 1.07754e-007 ++++++++++to 1.07754e-007
Heightened Def Con from 1.07754e-007 ++++++++++to 1.07754e-007
Heightened Def Con from 1.07754e-007 ++++++++++to 1.07754e-007
Heightened Def Con from 1.07754e-007 ++++++++++to 1.07754e-007
Heightened Def Con from 1.07754e-007 ++++++++++to 1.07754e-007
Heightened Def Con from 1.07754e-007 ++++++++++to 1.07754e-007
Heightened Def Con from 1.07754e-007 ++++++++++to 1.07754e-007
Heightened Def Con from 1.07754e-007 ++++++++++to 1.07754e-007
Heightened Def Con from 1.07754e-007 ++++++++++to 1.07754e-007
Heightened Def Con from 1.07754e-007 ++++++++++to 1.07754e-007
Heightened Def Con from 1.07754e-007 ++++++++++to 1.07754e-007
Heightened Def Con from 1.07754e-007 ++++++++++to 1.07754e-007
Heightened Def Con from 1.07754e-007 ++++++++++to 1.07754e-007
Heightened Def Con from 1.07754e-007 ++++++++++to 1.07754e-007
Heightened Def Con from 1.07754e-007 ++++++++++to 1.07754e-007
Heightened Def Con from 1.07754e-007 ++++++++++to 1.07754e-007
Heightened Def Con from 1.07754e-007 ++++++++++to 1.07754e-007
Heightened Def Con from 1.07754e-007 ++++++++++to 1.07754e-007
Heightened Def Con from 1.07754e-007 ++++++++++to 1.07754e-007
Heightened Def Con from 1.07754e-007 ++++++++++to 1.07754e-007
Heightened Def Con from 1.07754e-007 ++++++++++to 1.07754e-007
Heightened Def Con from 1.07754e-007 ++++++++++to 1.07754e-007
Heightened Def Con from 1.07754e-007 ++++++++++to 1.07754e-007
Heightened Def Con from 1.07754e-007 ++++++++++to 1.07754e-007
Heightened Def Con from 1.07754e-007 ++++++++++to 1.07755e-007
Heightened Def Con from 1.07755e-007 ++++++++++to 1.07755e-007
Heightened Def Con from 1.07755e-007 ++++++++++to 1.07755e-007
Heightened Def Con from 1.07755e-007 ++++++++++to 1.07755e-007
Heightened Def Con from 1.07755e-007 ++++++++++to 1.07755e-007
Heightened Def Con from 1.07755e-007 ++++++++++to 1.07755e-007
Heightened Def Con from 1.07755e-007 ++++++++++to 1.07755e-007
Heightened Def Con from 1.07755e-007 ++++++++++to 1.07755e-007
Heightened Def Con from 1.07755e-007 ++++++++++to 1.07755e-007
Heightened Def Con from 1.07755e-007 ++++++++++to 1.07755e-007
Heightened Def Con from 1.07755e-007 ++++++++++to 1.07755e-007
Heightened Def Con from 1.07755e-007 ++++++++++to 1.07755e-007
Heightened Def Con from 1.07755e-007 ++++++++++to 1.07755e-007
Heightened Def Con from 1.07755e-007 ++++++++++to 1.07755e-007
Heightened Def Con from 1.07755e-007 ++++++++++to 1.07755e-007
Heightened Def Con from 1.07755e-007 ++++++++++to 1.07755e-007
Heightened Def Con from 1.07755e-007 ++++++++++to 1.07755e-007
Heightened Def Con from 1.07755e-007 ++++++++++to 1.07755e-007
Heightened Def Con from 1.07755e-007 ++++++++++to 1.07755e-007
Heightened Def Con from 1.07755e-007 ++++++++++to 1.07755e-007
Heightened Def Con from 1.07755e-007 ++++++++++to 1.07755e-007
Heightened Def Con from 1.07755e-007 ++++++++++to 1.07755e-007
Heightened Def Con from 1.07755e-007 ++++++++++to 1.07755e-007
Heightened Def Con from 1.07755e-007 ++++++++++to 1.07755e-007
Heightened Def Con from 1.07755e-007 ++++++++++to 1.07755e-007
Heightened Def Con from 1.07755e-007 ++++++++++to 1.07755e-007
Heightened Def Con from 1.07755e-007 ++++++++++to 1.07755e-007
Heightened Def Con from 1.07755e-007 ++++++++++to 1.07755e-007
Heightened Def Con from 1.07755e-007 ++++++++++to 1.07755e-007
Heightened Def Con from 1.07755e-007 ++++++++++to 1.07755e-007
Heightened Def Con from 1.07755e-007 ++++++++++to 1.07755e-007
Heightened Def Con from 1.07755e-007 ++++++++++to 1.07755e-007
Heightened Def Con from 1.07755e-007 ++++++++++to 1.07755e-007
Heightened Def Con from 1.07755e-007 ++++++++++to 1.07755e-007
Heightened Def Con from 1.07755e-007 ++++++++++to 1.07755e-007
Heightened Def Con from 1.07755e-007 ++++++++++to 1.07755e-007
Heightened Def Con from 1.07755e-007 ++++++++++to 1.07755e-007
Heightened Def Con from 1.07755e-007 ++++++++++to 1.07755e-007
Heightened Def Con from 1.07755e-007 ++++++++++to 1.07755e-007
Heightened Def Con from 1.07755e-007 ++++++++++to 1.07755e-007
Heightened Def Con from 1.07755e-007 ++++++++++to 1.07755e-007
Heightened Def Con from 1.07755e-007 ++++++++++to 1.07755e-007
Heightened Def Con from 1.07755e-007 ++++++++++to 1.07755e-007
Heightened Def Con from 1.07755e-007 ++++++++++to 1.07755e-007
Heightened Def Con from 1.07755e-007 ++++++++++to 1.07755e-007
Heightened Def Con from 1.07755e-007 ++++++++++to 1.07755e-007
Heightened Def Con from 1.07755e-007 ++++++++++to 1.07755e-007
Heightened Def Con from 1.07755e-007 ++++++++++to 1.07755e-007
Heightened Def Con from 1.07755e-007 ++++++++++to 1.07755e-007
Heightened Def Con from 1.07755e-007 ++++++++++to 1.07755e-007
Heightened Def Con from 1.07755e-007 ++++++++++to 1.07755e-007
Heightened Def Con from 1.07755e-007 ++++++++++to 1.07755e-007
Heightened Def Con from 1.07755e-007 ++++++++++to 1.07755e-007
Heightened Def Con from 1.07755e-007 ++++++++++to 1.07755e-007
Heightened Def Con from 1.07755e-007 ++++++++++to 1.07755e-007
Heightened Def Con from 1.07755e-007 ++++++++++to 1.07755e-007
Heightened Def Con from 1.07755e-007 ++++++++++to 1.07755e-007
Heightened Def Con from 1.07755e-007 ++++++++++to 1.07755e-007
Heightened Def Con from 1.07755e-007 ++++++++++to 1.07755e-007
Heightened Def Con from 1.07755e-007 ++++++++++to 1.07755e-007
Heightened Def Con from 1.07755e-007 ++++++++++to 1.07755e-007
Heightened Def Con from 1.07755e-007 ++++++++++to 1.07755e-007
Heightened Def Con from 1.07755e-007 ++++++++++to 1.07755e-007
Heightened Def Con from 1.07755e-007 ++++++++++to 1.07755e-007
Heightened Def Con from 1.07755e-007 ++++++++++to 1.07755e-007
Heightened Def Con from 1.07755e-007 ++++++++++to 1.07755e-007
Heightened Def Con from 1.07755e-007 ++++++++++to 1.07755e-007
Heightened Def Con from 1.07755e-007 ++++++++++to 1.07755e-007
Heightened Def Con from 1.07755e-007 ++++++++++to 1.07755e-007
Heightened Def Con from 1.07755e-007 ++++++++++to 1.07755e-007
Heightened Def Con from 1.07755e-007 ++++++++++to 1.07755e-007
Heightened Def Con from 1.07755e-007 ++++++++++to 1.07755e-007
Heightened Def Con from 1.07755e-007 ++++++++++to 1.07755e-007
Heightened Def Con from 1.07755e-007 ++++++++++to 1.07755e-007
Heightened Def Con from 1.07755e-007 ++++++++++to 1.07755e-007
Heightened Def Con from 1.07755e-007 ++++++++++to 1.07755e-007
Heightened Def Con from 1.07755e-007 ++++++++++to 1.07755e-007
Heightened Def Con from 1.07755e-007 +++